data/radial_test/case34sa.m
function mpc = case34sa
%CASE34SA

%% MATPOWER Case Format : Version 2
mpc.version = '2';

%%-----  Power Flow Data  -----%%
%% system MVA base
mpc.baseMVA = 1;

%% bus data
%	bus_i	type	Pd	Qd	Gs	Bs	area	Vm	Va	baseKV	zone	Vmax	Vmin
mpc.bus = [
	1	3	0	0	0	0	1	1	0	11	1	1	1;
	2	1	0.1425	0.23	0	0	1	1	0	11	1	1.1	0.9;
	3	1	0	0	0	0	1	1	0	11	1	1.1	0.9;
	4	1	0.1425	0.23	0	0	1	1	0	11	1	1.1	0.9;
	5	1	0.1425	0.23	0	0	1	1	0	11	1	1.1	0.9;
	6	1	0	0	0	0	1	1	0	11	1	1.1	0.9;
	7	1	0	0	0	0	1	1	0	11	1	1.1	0.9;
	8	1	0.1425	0.23	0	0	1	1	0	11	1	1.1	0.9;
	9	1	0.1425	0.23	0	0	1	1	0	11	1	1.1	0.9;
	10	1	0	0	0	0	1	1	0	11	1	1.1	0.9;
	11	1	0.1425	0.23	0	0	1	1	0	11	1	1.1	0.9;
	12	1	0.084	0.137	0	0	1	1	0	11	1	1.1	0.9;
	13	1	0.045	0.072	0	0	1	1	0	11	1	1.1	0.9;
	14	1	0.045	0.072	0	0	1	1	0	11	1	1.1	0.9;
	15	1	0.045	0.072	0	0	1	1	0	11	1	1.1	0.9;
	16	1	0.0075	0.0135	0	0	1	1	0	11	1	1.1	0.9;
	17	1	0.1425	0.23	0	0	1	1	0	11	1	1.1	0.9;
	18	1	0.1425	0.23	0	0	1	1	0	11	1	1.1	0.9;
	19	1	0.1425	0.23	0	0	1	1	0	11	1	1.1	0.9;
	20	1	0.1425	0.23	0	0	1	1	0	11	1	1.1	0.9;
	21	1	0.1425	0.23	0	0	1	1	0	11	1	1.1	0.9;
	22	1	0.1425	0.23	0	0	1	1	0	11	1	1.1	0.9;
	23	1	0.1425	0.23	0	0	1	1	0	11	1	1.1	0.9;
	24	1	0.1425	0.23	0	0	1	1	0	11	1	1.1	0.9;
	25	1	0.1425	0.23	0	0	1	1	0	11	1	1.1	0.9;
	26	1	0.1425	0.23	0	0	1	1	0	11	1	1.1	0.9;
	27	1	0.085	0.137	0	0	1	1	0	11	1	1.1	0.9;
	28	1	0.048	0.075	0	0	1	1	0	11	1	1.1	0.9;
	29	1	0.048	0.075	0	0	1	1	0	11	1	1.1	0.9;
	30	1	0.048	0.075	0	0	1	1	0	11	1	1.1	0.9;
	31	1	0.0345	0.057	0	0	1	1	0	11	1	1.1	0.9;
	32	1	0.0345	0.057	0	0	1	1	0	11	1	1.1	0.9;
	33	1	0.0345	0.057	0	0	1	1	0	11	1	1.1	0.9;
	34	1	0.0345	0.057	0	0	1	1	0	11	1	1.1	0.9;
];

%% generator data
%	bus	Pg	Qg	Qmax	Qmin	Vg	mBase	status	Pmax	Pmin	Pc1	Pc2	Qc1min	Qc1max	Qc2min	Qc2max	ramp_agc	ramp_10	ramp_30	ramp_q	apf
mpc.gen = [
	1	0	0	10	-10	1	100	1	10	0	0	0	0	0	0	0	0	0	0	0	0;
];

%% branch data
%	fbus	tbus	r	x	b	rateA	rateB	rateC	ratio	angle	status	angmin	angmax
mpc.branch = [
	1	2	0.000966942149	0.000396694215	0	0	0	0	0	0	1	-360	360;
	2	3	0.000886363636	0.000363636364	0	0	0	0	0	0	1	-360	360;
	3	4	0.00135909091	0.000377272727	0	0	0	0	0	0	1	-360	360;
	4	5	0.00123553719	0.000342975207	0	0	0	0	0	0	1	-360	360;
	5	6	0.00123553719	0.000342975207	0	0	0	0	0	0	1	-360	360;
	6	7	0.00259834711	0.000446280992	0	0	0	0	0	0	1	-360	360;
	7	8	0.0017322314	0.000297520661	0	0	0	0	0	0	1	-360	360;
	8	9	0.00259834711	0.000446280992	0	0	0	0	0	0	1	-360	360;
	9	10	0.0017322314	0.000297520661	0	0	0	0	0	0	1	-360	360;
	10	11	0.00108264463	0.000185950413	0	0	0	0	0	0	1	-360	360;
	11	12	0.000866115702	0.000148760331	0	0	0	0	0	0	1	-360	360;
	3	13	0.00129917355	0.000223140496	0	0	0	0	0	0	1	-360	360;
	13	14	0.0017322314	0.000297520661	0	0	0	0	0	0	1	-360	360;
	14	15	0.000866115702	0.000148760331	0	0	0	0	0	0	1	-360	360;
	15	16	0.000433057851	7.43801653e-05	0	0	0	0	0	0	1	-360	360;
	6	17	0.00148264463	0.000411570248	0	0	0	0	0	0	1	-360	360;
	17	18	0.00135909091	0.000377272727	0	0	0	0	0	0	1	-360	360;
	18	19	0.00171818182	0.000390909091	0	0	0	0	0	0	1	-360	360;
	19	20	0.00156198347	0.000355371901	0	0	0	0	0	0	1	-360	360;
	20	21	0.00156198347	0.000355371901	0	0	0	0	0	0	1	-360	360;
	21	22	0.00216528926	0.000371900826	0	0	0	0	0	0	1	-360	360;
	22	23	0.00216528926	0.000371900826	0	0	0	0	0	0	1	-360	360;
	23	24	0.00259834711	0.000446280992	0	0	0	0	0	0	1	-360	360;
	24	25	0.0017322314	0.000297520661	0	0	0	0	0	0	1	-360	360;
	25	26	0.00108264463	0.000185950413	0	0	0	0	0	0	1	-360	360;
	26	27	0.000866115702	0.000148760331	0	0	0	0	0	0	1	-360	360;
	7	28	0.00129917355	0.000223140496	0	0	0	0	0	0	1	-360	360;
	28	29	0.00129917355	0.000223140496	0	0	0	0	0	0	1	-360	360;
	29	30	0.00129917355	0.000223140496	0	0	0	0	0	0	1	-360	360;
	10	31	0.00129917355	0.000223140496	0	0	0	0	0	0	1	-360	360;
	31	32	0.0017322314	0.000297520661	0	0	0	0	0	0	1	-360	360;
	32	33	0.00129917355	0.000223140496	0	0	0	0	0	0	1	-360	360;
	33	34	0.000866115702	0.000148760331	0	0	0	0	0	0	1	-360	360;
];

%%-----  OPF Data  -----%%
%% generator cost data
%	1	startup	shutdown	n	x1	y1	...	xn	yn
%	2	startup	shutdown	n	c(n-1)	...	c0
mpc.gencost = [
	2	0	0	3	0	20	0;
];
